16
[/home/surajit/SURE/Arghya/publish/Data/data_workflows-master-3c7a0808d1ac395ecf485adb2c1f59b1a61b30fc/qm9_g4mp2/tmp/extracted/output/dsgdb9nsd_044015.log: Geometry 2]
O     -2.7722040000   -0.1362300000   -0.0050900000
C     -1.5823750000    0.0023810000   -0.0152200000
C     -0.7763460000    1.3493300000    0.0204620000
C      0.5760690000    0.6927100000    0.0602620000
C      2.1039040000    0.7725680000   -0.0107260000
C      1.7451760000   -0.7368470000   -0.0523860000
C      0.5806200000   -0.6020930000    0.9491520000
C     -0.4861960000   -1.0753400000   -0.0478310000
N      0.5530690000   -0.4532210000   -0.9959600000
H     -0.9695190000    1.9359970000   -0.8816310000
H     -1.0386600000    1.9398370000    0.9019070000
H      2.5262090000    1.1913160000   -0.9278150000
H      2.6219580000    1.1348280000    0.8802290000
H      2.4081320000   -1.5854510000   -0.2232350000
H      0.5961300000   -0.6644390000    2.0418850000
H     -0.8032190000   -2.1059630000   -0.2011750000
