10
[/home/surajit/SURE/Arghya/publish/Data/data_workflows-master-3c7a0808d1ac395ecf485adb2c1f59b1a61b30fc/qm9_g4mp2/tmp/extracted/output/dsgdb9nsd_001020.log: Geometry 4]
C      2.9315290000   -0.0298680000    0.0000020000
C      1.7285970000   -0.0172270000   -0.0000010000
C      0.3153230000    0.0080770000   -0.0000010000
C     -0.5127980000    1.0899010000   -0.0000020000
O     -1.7975800000    0.6439860000    0.0000010000
C     -1.6839880000   -0.7071180000    0.0000040000
N     -0.4741620000   -1.1503750000   -0.0000040000
H      3.9932970000   -0.0470430000    0.0000100000
H     -0.3612390000    2.1547990000   -0.0000020000
H     -2.6042650000   -1.2696120000    0.0000060000
